Texas/Base_Texas_66GW.m
% Case saved by PowerWorld Simulator, version 22, build date March 24, 2022
function mpc = Base_Texas_66GW
mpc.version = '2';
mpc.baseMVA =  100.00;

%% bus data 
mpc.bus = [
50310	2	0.00	0.00	0.00	0.00	34	1.0200000	-59.255595	345.00	1	1.100	0.900	-2.00	0.00	0	0
50311	2	0.00	0.00	0.00	0.00	34	1.0200000	-66.917384	345.00	1	1.100	0.900	-2.00	0.00	0	0
50312	2	0.00	0.00	0.00	0.00	34	1.0200000	-68.881611	345.00	1	1.100	0.900	-2.00	0.00	0	0
50313	2	0.00	0.00	0.00	0.00	34	1.0200000	-66.296810	345.00	1	1.100	0.900	-2.00	0.00	0	0
50314	2	0.00	0.00	0.00	0.00	34	1.0200000	-61.961509	345.00	1	1.100	0.900	-2.00	0.00	0	0
50315	2	0.00	0.00	0.00	0.00	34	1.0200000	-74.502388	345.00	1	1.100	0.900	-2.00	0.00	0	0
50316	2	0.00	0.00	0.00	0.00	34	1.0200000	-61.704167	230.00	1	1.100	0.900	-2.00	0.00	0	0
50317	2	0.00	0.00	0.00	0.00	34	1.0200000	-62.787170	230.00	1	1.100	0.900	-2.00	0.00	0	0
50318	2	0.00	0.00	0.00	0.00	34	1.0200000	-63.192126	345.00	1	1.100	0.900	-2.00	0.00	0	0
50319	2	0.00	0.00	0.00	0.00	34	1.0200000	-58.193612	230.00	1	1.100	0.900	-2.00	0.00	0	0
50320	3	0.00	0.00	0.00	0.00	34	1.0200000	-67.191789	345.00	1	1.100	0.900	-2.00	0.00	0	0
50321	2	0.00	0.00	0.00	0.00	34	1.0200000	-70.818616	345.00	1	1.100	0.900	-2.00	0.00	0	0
50322	2	0.00	0.00	0.00	0.00	34	1.0200000	-69.047467	345.00	1	1.100	0.900	-2.00	0.00	0	0
50323	2	0.00	0.00	0.00	0.00	34	1.0200000	-61.662274	345.00	1	1.100	0.900	-2.00	0.00	0	0
50324	2	0.00	0.00	0.00	0.00	34	1.0199046	-63.203941	345.00	1	1.100	0.900	-2.00	0.00	0	0
50325	2	0.00	0.00	0.00	0.00	34	1.0200000	-53.824588	345.00	1	1.100	0.900	-2.00	0.00	0	0
50326	2	0.00	0.00	0.00	0.00	34	1.0200000	-64.317422	345.00	1	1.100	0.900	-2.00	0.00	0	0
50327	2	0.00	0.00	0.00	0.00	34	1.0200000	-60.789587	345.00	1	1.100	0.900	-2.00	0.00	0	0
50328	2	0.00	0.00	0.00	0.00	34	1.0200000	-68.111743	345.00	1	1.100	0.900	-2.00	0.00	0	0
50329	2	0.00	0.00	0.00	0.00	34	1.0175259	-70.959143	345.00	1	1.100	0.900	-2.00	0.00	0	0
50330	2	0.00	0.00	0.00	0.00	34	1.0150131	-75.465383	345.00	1	1.100	0.900	-2.00	0.00	0	0
50331	2	0.00	0.00	0.00	0.00	34	1.0203146	-64.294293	345.00	1	1.100	0.900	-2.00	0.00	0	0
50332	2	0.00	0.00	0.00	0.00	34	1.0200000	-66.539281	230.00	1	1.100	0.900	-2.00	0.00	0	0
50333	2	0.00	0.00	0.00	0.00	34	1.0202457	-64.299089	345.00	1	1.100	0.900	-2.00	0.00	0	0
50334	2	0.00	0.00	0.00	0.00	34	1.0200000	-62.891394	230.00	1	1.100	0.900	-2.00	0.00	0	0
50335	2	0.00	0.00	0.00	0.00	34	1.0075901	-77.821126	230.00	1	1.100	0.900	-2.00	0.00	0	0
50336	2	0.00	0.00	0.00	0.00	34	1.0031018	-76.879888	345.00	1	1.100	0.900	-2.00	0.00	0	0
50337	2	0.00	0.00	0.00	0.00	34	1.0200000	-55.648019	345.00	1	1.100	0.900	-2.00	0.00	0	0
50338	2	0.00	0.00	0.00	0.00	34	0.9972527	-78.280481	138.00	1	1.100	0.900	-2.00	0.00	0	0
50339	2	0.00	0.00	0.00	0.00	34	1.0200000	-54.735307	345.00	1	1.100	0.900	-2.00	0.00	0	0
50340	2	0.00	0.00	0.00	0.00	34	1.0200000	-57.192556	345.00	1	1.100	0.900	-2.00	0.00	0	0
50341	2	0.00	0.00	0.00	0.00	34	1.0200000	-73.702964	138.00	1	1.100	0.900	-2.00	0.00	0	0
50342	2	0.00	0.00	0.00	0.00	34	1.0200000	-57.519839	345.00	1	1.100	0.900	-2.00	0.00	0	0
50343	2	0.00	0.00	0.00	0.00	34	1.0200000	-46.254695	345.00	1	1.100	0.900	-2.00	0.00	0	0
50344	2	0.00	0.00	0.00	0.00	34	1.0200000	-61.979272	345.00	1	1.100	0.900	-2.00	0.00	0	0
50345	2	0.00	0.00	0.00	0.00	34	1.0200000	-56.422780	345.00	1	1.100	0.900	-2.00	0.00	0	0
50346	2	0.00	0.00	0.00	0.00	34	1.0181970	-68.005916	345.00	1	1.100	0.900	-2.00	0.00	0	0
50347	2	0.00	0.00	0.00	0.00	34	1.0200000	-70.107860	230.00	1	1.100	0.900	-2.00	0.00	0	0
50348	2	0.00	0.00	0.00	0.00	34	1.0200000	-64.274374	345.00	1	1.100	0.900	-2.00	0.00	0	0
50349	2	0.00	0.00	0.00	0.00	34	1.0200000	-43.355793	138.00	1	1.100	0.900	-2.00	0.00	0	0
50350	2	0.00	0.00	0.00	0.00	34	1.0200000	-71.023979	345.00	1	1.100	0.900	-2.00	0.00	0	0
50351	2	0.00	0.00	0.00	0.00	34	1.0181535	-71.619809	138.00	1	1.100	0.900	-2.00	0.00	0	0
50352	1	0.00	0.00	0.00	0.00	34	1.0205772	-47.049263	345.00	1	1.100	0.900	-2.00	0.00	0	0
50353	2	0.00	0.00	0.00	0.00	34	0.9945059	-76.580528	230.00	1	1.100	0.900	-2.00	0.00	0	0
50354	2	0.00	0.00	0.00	0.00	34	1.0200000	-47.665661	345.00	1	1.100	0.900	-2.00	0.00	0	0
50355	2	0.00	0.00	0.00	0.00	34	1.0200000	-74.623902	345.00	1	1.100	0.900	-2.00	0.00	0	0
50356	2	0.00	0.00	0.00	0.00	34	1.0200000	-46.959131	230.00	1	1.100	0.900	-2.00	0.00	0	0
50357	2	0.00	0.00	0.00	0.00	34	1.0200000	-65.323514	138.00	1	1.100	0.900	-2.00	0.00	0	0
50358	2	0.00	0.00	0.00	0.00	34	1.0200000	-53.213314	138.00	1	1.100	0.900	-2.00	0.00	0	0
50359	1	0.00	0.00	0.00	0.00	34	1.0197107	-54.409499	230.00	1	1.100	0.900	-2.00	0.00	0	0
50360	2	0.00	0.00	0.00	0.00	34	1.0200000	-54.919629	138.00	1	1.100	0.900	-2.00	0.00	0	0
50361	2	0.00	0.00	0.00	0.00	34	1.0193700	-67.234917	345.00	1	1.100	0.900	-2.00	0.00	0	0
50362	2	0.00	0.00	0.00	0.00	34	1.0200000	-53.969007	345.00	1	1.100	0.900	-2.00	0.00	0	0
50363	2	0.00	0.00	0.00	0.00	34	1.0170362	-51.761333	345.00	1	1.100	0.900	-2.00	0.00	0	0
50364	2	0.00	0.00	0.00	0.00	34	1.0200000	-50.032944	345.00	1	1.100	0.900	-2.00	0.00	0	0
50365	2	0.00	0.00	0.00	0.00	34	1.0200000	-70.190149	345.00	1	1.100	0.900	-2.00	0.00	0	0
50366	2	0.00	0.00	0.00	0.00	34	1.0200000	-54.651173	345.00	1	1.100	0.900	-2.00	0.00	0	0
50367	2	0.00	0.00	0.00	0.00	34	1.0200000	-69.821193	345.00	1	1.100	0.900	-2.00	0.00	0	0
50368	2	0.00	0.00	0.00	0.00	34	1.0200000	-67.750174	230.00	1	1.100	0.900	-2.00	0.00	0	0
50369	2	0.00	0.00	0.00	0.00	34	1.0200000	-46.950169	138.00	1	1.100	0.900	-2.00	0.00	0	0
50370	2	0.00	0.00	0.00	0.00	34	1.0200000	-58.786954	138.00	1	1.100	0.900	-2.00	0.00	0	0
50371	2	0.00	0.00	0.00	0.00	34	1.0200000	-65.737960	345.00	1	1.100	0.900	-2.00	0.00	0	0
50372	2	0.00	0.00	0.00	0.00	34	1.0200000	-75.268365	345.00	1	1.100	0.900	-2.00	0.00	0	0
50373	2	0.00	0.00	0.00	0.00	34	1.0200000	-54.698311	345.00	1	1.100	0.900	-2.00	0.00	0	0
50374	2	0.00	0.00	0.00	0.00	34	1.0200000	-53.749433	345.00	1	1.100	0.900	-2.00	0.00	0	0
50375	2	0.00	0.00	0.00	0.00	34	1.0200000	-64.452190	345.00	1	1.100	0.900	-2.00	0.00	0	0
50376	2	0.00	0.00	0.00	0.00	34	1.0200000	-66.131045	345.00	1	1.100	0.900	-2.00	0.00	0	0
50377	2	0.00	0.00	0.00	0.00	34	1.0182109	-75.322514	345.00	1	1.100	0.900	-2.00	0.00	0	0
50378	2	0.00	0.00	0.00	0.00	34	1.0200000	-71.047751	345.00	1	1.100	0.900	-2.00	0.00	0	0
50379	2	0.00	0.00	0.00	0.00	34	1.0200000	-63.312603	345.00	1	1.100	0.900	-2.00	0.00	0	0
50380	2	0.00	0.00	0.00	0.00	34	1.0200000	-60.907589	345.00	1	1.100	0.900	-2.00	0.00	0	0
50381	2	0.00	0.00	0.00	0.00	34	1.0174051	-75.173314	345.00	1	1.100	0.900	-2.00	0.00	0	0
50382	2	0.00	0.00	0.00	0.00	34	1.0063365	-69.355051	230.00	1	1.100	0.900	-2.00	0.00	0	0
50383	1	0.00	0.00	0.00	0.00	34	1.0237604	-56.381643	345.00	1	1.100	0.900	-2.00	0.00	0	0
50384	2	0.00	0.00	0.00	0.00	34	1.0116724	-57.537565	138.00	1	1.100	0.900	-2.00	0.00	0	0
50385	2	0.00	0.00	0.00	0.00	34	1.0201074	-74.493487	345.00	1	1.100	0.900	-2.00	0.00	0	0
50386	2	0.00	0.00	0.00	0.00	34	1.0082976	-70.449434	345.00	1	1.100	0.900	-2.00	0.00	0	0
50387	2	0.00	0.00	0.00	0.00	34	1.0200000	-63.028450	345.00	1	1.100	0.900	-2.00	0.00	0	0
50388	2	0.00	0.00	0.00	0.00	34	1.0200000	-58.218292	230.00	1	1.100	0.900	-2.00	0.00	0	0
50389	2	0.00	0.00	0.00	0.00	34	1.0200000	-54.962296	345.00	1	1.100	0.900	-2.00	0.00	0	0
50390	2	0.00	0.00	0.00	0.00	34	1.0200000	-64.485442	345.00	1	1.100	0.900	-2.00	0.00	0	0
50391	2	0.00	0.00	0.00	0.00	34	0.9983895	-74.726181	345.00	1	1.100	0.900	-2.00	0.00	0	0
50392	2	0.00	0.00	0.00	0.00	34	1.0200000	-68.840134	138.00	1	1.100	0.900	-2.00	0.00	0	0
50393	2	0.00	0.00	0.00	0.00	34	1.0200000	-54.493985	345.00	1	1.100	0.900	-2.00	0.00	0	0
50394	2	0.00	0.00	0.00	0.00	34	1.0200000	-58.006244	138.00	1	1.100	0.900	-2.00	0.00	0	0
50395	2	0.00	0.00	0.00	0.00	34	1.0200000	-60.720704	230.00	1	1.100	0.900	-2.00	0.00	0	0
50396	2	0.00	0.00	0.00	0.00	34	1.0200000	-64.797350	345.00	1	1.100	0.900	-2.00	0.00	0	0
50397	2	0.00	0.00	0.00	0.00	34	1.0200000	-48.118882	345.00	1	1.100	0.900	-2.00	0.00	0	0
50398	2	0.00	0.00	0.00	0.00	34	1.0200000	-54.491623	230.00	1	1.100	0.900	-2.00	0.00	0	0
50399	2	0.00	0.00	0.00	0.00	34	1.0200000	-62.653293	345.00	1	1.100	0.900	-2.00	0.00	0	0
50400	2	0.00	0.00	0.00	0.00	34	1.0200000	-69.031302	345.00	1	1.100	0.900	-2.00	0.00	0	0
50401	2	0.00	0.00	0.00	0.00	34	1.0200000	-61.735641	345.00	1	1.100	0.900	-2.00	0.00	0	0
50402	2	0.00	0.00	0.00	0.00	34	1.0200000	-54.630187	138.00	1	1.100	0.900	-2.00	0.00	0	0
50403	2	0.00	0.00	0.00	0.00	34	1.0200000	-76.885043	345.00	1	1.100	0.900	-2.00	0.00	0	0
50404	2	0.00	0.00	0.00	0.00	34	1.0200000	-44.809826	138.00	1	1.100	0.900	-2.00	0.00	0	0
50405	1	0.00	0.00	0.00	0.00	34	1.0172501	-59.240618	345.00	1	1.100	0.900	-2.00	0.00	0	0
50406	2	0.00	0.00	0.00	0.00	34	1.0200000	-74.405661	345.00	1	1.100	0.900	-2.00	0.00	0	0
50407	2	0.00	0.00	0.00	0.00	34	1.0200000	-69.667006	345.00	1	1.100	0.900	-2.00	0.00	0	0
50408	2	0.00	0.00	0.00	0.00	34	1.0200000	-54.178220	345.00	1	1.100	0.900	-2.00	0.00	0	0
50409	2	0.00	0.00	0.00	0.00	34	1.0200000	-56.633410	345.00	1	1.100	0.900	-2.00	0.00	0	0
50410	2	0.00	0.00	0.00	0.00	34	1.0194707	-58.784428	138.00	1	1.100	0.900	-2.00	0.00	0	0
50411	2	0.00	0.00	0.00	0.00	34	1.0200000	-55.740498	345.00	1	1.100	0.900	-2.00	0.00	0	0
50412	2	0.00	0.00	0.00	0.00	34	1.0200000	-51.516213	138.00	1	1.100	0.900	-2.00	0.00	0	0
50413	2	0.00	0.00	0.00	0.00	34	1.0200000	-68.011954	230.00	1	1.100	0.900	-2.00	0.00	0	0
50414	2	0.00	0.00	0.00	0.00	34	0.9928364	-70.427590	138.00	1	1.100	0.900	-2.00	0.00	0	0
50415	1	0.00	0.00	0.00	0.00	34	1.0204862	-46.689252	230.00	1	1.100	0.900	-2.00	0.00	0	0
50416	1	0.00	0.00	0.00	0.00	34	1.0232678	-56.223806	345.00	1	1.100	0.900	-2.00	0.00	0	0
50417	1	0.00	0.00	0.00	0.00	34	1.0268466	-59.061368	345.00	1	1.100	0.900	-2.00	0.00	0	0
50418	2	0.00	0.00	0.00	0.00	34	1.0200000	-57.054607	345.00	1	1.100	0.900	-2.00	0.00	0	0
50419	2	0.00	0.00	0.00	0.00	34	1.0200000	-62.841136	138.00	1	1.100	0.900	-2.00	0.00	0	0
50420	2	0.00	0.00	0.00	0.00	34	1.0200000	-65.122276	230.00	1	1.100	0.900	-2.00	0.00	0	0
50421	2	0.00	0.00	0.00	0.00	34	1.0200000	-53.312974	138.00	1	1.100	0.900	-2.00	0.00	0	0
50422	2	0.00	0.00	0.00	0.00	34	1.0199923	-65.738905	345.00	1	1.100	0.900	-2.00	0.00	0	0
50423	2	0.00	0.00	0.00	0.00	34	1.0028538	-78.022822	345.00	1	1.100	0.900	-2.00	0.00	0	0
50424	2	0.00	0.00	0.00	0.00	34	1.0200000	-44.036231	138.00	1	1.100	0.900	-2.00	0.00	0	0
50425	2	0.00	0.00	0.00	0.00	34	1.0200000	-65.313692	138.00	1	1.100	0.900	-2.00	0.00	0	0
50426	2	0.00	0.00	0.00	0.00	34	1.0200000	-49.019862	138.00	1	1.100	0.900	-2.00	0.00	0	0
50427	2	0.00	0.00	0.00	0.00	34	1.0200000	-45.823005	138.00	1	1.100	0.900	-2.00	0.00	0	0
50428	2	0.00	0.00	0.00	0.00	34	1.0200000	-51.139093	138.00	1	1.100	0.900	-2.00	0.00	0	0
50429	2	0.00	0.00	0.00	0.00	34	1.0054467	-74.264242	345.00	1	1.100	0.900	-2.00	0.00	0	0
50430	2	0.00	0.00	0.00	0.00	34	1.0200000	-51.908961	138.00	1	1.100	0.900	-2.00	0.00	0	0
50431	2	0.00	0.00	0.00	0.00	34	1.0199005	-48.310960	345.00	1	1.100	0.900	-2.00	0.00	0	0
50432	1	0.00	0.00	0.00	0.00	34	1.0061561	-54.856767	230.00	1	1.100	0.900	-2.00	0.00	0	0
50433	2	0.00	0.00	0.00	0.00	34	1.0200000	-48.016864	138.00	1	1.100	0.900	-2.00	0.00	0	0
50434	2	0.00	0.00	0.00	0.00	34	1.0190492	-64.226544	345.00	1	1.100	0.900	-2.00	0.00	0	0
50435	2	0.00	0.00	0.00	0.00	34	1.0079425	-56.670929	138.00	1	1.100	0.900	-2.00	0.00	0	0
50436	2	0.00	0.00	0.00	0.00	34	1.0200000	-51.455166	138.00	1	1.100	0.900	-2.00	0.00	0	0
50437	2	0.00	0.00	0.00	0.00	34	1.0200000	-48.290875	345.00	1	1.100	0.900	-2.00	0.00	0	0
50438	2	0.00	0.00	0.00	0.00	34	1.0200000	-47.070890	138.00	1	1.100	0.900	-2.00	0.00	0	0
50439	2	0.00	0.00	0.00	0.00	34	1.0200000	-55.703084	345.00	1	1.100	0.900	-2.00	0.00	0	0
50440	2	0.00	0.00	0.00	0.00	34	1.0187581	-72.130214	230.00	1	1.100	0.900	-2.00	0.00	0	0
50441	2	0.00	0.00	0.00	0.00	34	1.0200000	-49.183680	345.00	1	1.100	0.900	-2.00	0.00	0	0
50442	2	0.00	0.00	0.00	0.00	34	1.0198667	-74.413037	345.00	1	1.100	0.900	-2.00	0.00	0	0
50443	2	0.00	0.00	0.00	0.00	34	1.0196146	-60.194965	138.00	1	1.100	0.900	-2.00	0.00	0	0
50444	2	0.00	0.00	0.00	0.00	34	1.0125630	-66.936881	138.00	1	1.100	0.900	-2.00	0.00	0	0
50445	1	0.00	0.00	0.00	0.00	34	1.0132939	-72.348549	345.00	1	1.100	0.900	-2.00	0.00	0	0
50446	1	0.00	0.00	0.00	0.00	34	1.0194894	-47.923064	345.00	1	1.100	0.900	-2.00	0.00	0	0
50447	2	0.00	0.00	0.00	0.00	34	1.0200000	-46.234142	138.00	1	1.100	0.900	-2.00	0.00	0	0
50448	2	0.00	0.00	0.00	0.00	34	1.0027130	-69.352249	345.00	1	1.100	0.900	-2.00	0.00	0	0
50449	2	0.00	0.00	0.00	0.00	34	1.0200000	-68.213963	345.00	1	1.100	0.900	-2.00	0.00	0	0
50450	2	0.00	0.00	0.00	0.00	34	1.0200000	-45.622172	138.00	1	1.100	0.900	-2.00	0.00	0	0
50451	2	0.00	0.00	0.00	0.00	34	1.0200000	-51.340570	138.00	1	1.100	0.900	-2.00	0.00	0	0
50452	2	0.00	0.00	0.00	0.00	34	1.0200000	-44.093848	345.00	1	1.100	0.900	-2.00	0.00	0	0
50453	2	0.00	0.00	0.00	0.00	34	1.0200000	-55.998866	345.00	1	1.100	0.900	-2.00	0.00	0	0
50454	2	0.00	0.00	0.00	0.00	34	1.0200000	-68.339263	345.00	1	1.100	0.900	-2.00	0.00	0	0
50455	2	0.00	0.00	0.00	0.00	34	1.0155936	-75.189323	345.00	1	1.100	0.900	-2.00	0.00	0	0
50456	2	0.00	0.00	0.00	0.00	34	1.0200000	-63.151664	138.00	1	1.100	0.900	-2.00	0.00	0	0
50457	2	0.00	0.00	0.00	0.00	34	1.0167683	-73.189808	138.00	1	1.100	0.900	-2.00	0.00	0	0
50458	2	0.00	0.00	0.00	0.00	34	1.0200000	-70.367254	138.00	1	1.100	0.900	-2.00	0.00	0	0
50459	2	0.00	0.00	0.00	0.00	34	1.0008358	-75.647418	138.00	1	1.100	0.900	-2.00	0.00	0	0
50460	2	0.00	0.00	0.00	0.00	34	1.0158734	-75.717659	230.00	1	1.100	0.900	-2.00	0.00	0	0
50461	2	0.00	0.00	0.00	0.00	34	1.0200000	-75.316300	345.00	1	1.100	0.900	-2.00	0.00	0	0
50462	2	0.00	0.00	0.00	0.00	34	1.0200000	-51.900314	138.00	1	1.100	0.900	-2.00	0.00	0	0
50463	2	0.00	0.00	0.00	0.00	34	0.9971387	-75.507901	345.00	1	1.100	0.900	-2.00	0.00	0	0
50464	2	0.00	0.00	0.00	0.00	34	1.0200000	-58.155045	138.00	1	1.100	0.900	-2.00	0.00	0	0
50465	1	0.00	0.00	0.00	0.00	34	1.0094085	-68.561320	345.00	1	1.100	0.900	-2.00	0.00	0	0
50466	1	0.00	0.00	0.00	0.00	34	0.9978751	-73.778404	138.00	1	1.100	0.900	-2.00	0.00	0	0
50467	2	0.00	0.00	0.00	0.00	34	1.0200000	-43.921082	138.00	1	1.100	0.900	-2.00	0.00	0	0
50468	1	0.00	0.00	0.00	0.00	34	1.0023606	-57.923155	138.00	1	1.100	0.900	-2.00	0.00	0	0
50469	2	0.00	0.00	0.00	0.00	34	1.0200000	-48.292772	138.00	1	1.100	0.900	-2.00	0.00	0	0
50470	2	0.00	0.00	0.00	0.00	34	1.0200000	-70.883728	230.00	1	1.100	0.900	-2.00	0.00	0	0
50471	2	0.00	0.00	0.00	0.00	34	1.0120046	-57.301102	138.00	1	1.100	0.900	-2.00	0.00	0	0
50472	2	0.00	0.00	0.00	0.00	34	1.0200000	-74.391276	345.00	1	1.100	0.900	-2.00	0.00	0	0
50473	2	0.00	0.00	0.00	0.00	34	1.0200000	-56.693288	138.00	1	1.100	0.900	-2.00	0.00	0	0
50474	2	0.00	0.00	0.00	0.00	34	1.0200000	-51.766920	138.00	1	1.100	0.900	-2.00	0.00	0	0
50475	2	0.00	0.00	0.00	0.00	34	0.9986220	-76.885351	230.00	1	1.100	0.900	-2.00	0.00	0	0
50476	2	0.00	0.00	0.00	0.00	34	1.0200000	-57.272249	345.00	1	1.100	0.900	-2.00	0.00	0	0
50477	2	0.00	0.00	0.00	0.00	34	1.0200000	-54.929576	345.00	1	1.100	0.900	-2.00	0.00	0	0
50478	2	0.00	0.00	0.00	0.00	34	1.0200000	-46.877096	138.00	1	1.100	0.900	-2.00	0.00	0	0
50479	2	0.00	0.00	0.00	0.00	34	1.0197842	-75.505528	345.00	1	1.100	0.900	-2.00	0.00	0	0
50480	1	0.00	0.00	0.00	0.00	34	1.0202300	-49.622849	345.00	1	1.100	0.900	-2.00	0.00	0	0
50481	2	0.00	0.00	0.00	0.00	34	1.0188524	-64.993054	345.00	1	1.100	0.900	-2.00	0.00	0	0
50482	1	0.00	0.00	0.00	0.00	34	1.0153932	-59.631680	345.00	1	1.100	0.900	-2.00	0.00	0	0
50483	2	0.00	0.00	0.00	0.00	34	1.0140891	-50.140855	138.00	1	1.100	0.900	-2.00	0.00	0	0
50484	1	0.00	0.00	0.00	0.00	34	0.9620377	-81.781647	138.00	1	1.100	0.900	-2.00	0.00	0	0
50485	2	0.00	0.00	0.00	0.00	34	1.0200436	-64.476129	345.00	1	1.100	0.900	-2.00	0.00	0	0
50486	2	0.00	0.00	0.00	0.00	34	1.0200000	-48.911862	138.00	1	1.100	0.900	-2.00	0.00	0	0
50487	1	0.00	0.00	0.00	0.00	34	1.0170428	-67.829816	230.00	1	1.100	0.900	-2.00	0.00	0	0
50488	2	0.00	0.00	0.00	0.00	34	1.0200000	-62.078078	138.00	1	1.100	0.900	-2.00	0.00	0	0
50489	2	0.00	0.00	0.00	0.00	34	0.9808661	-58.656929	345.00	1	1.100	0.900	-2.00	0.00	0	0
50490	1	0.00	0.00	0.00	0.00	34	1.0140702	-59.536216	138.00	1	1.100	0.900	-2.00	0.00	0	0
50491	1	0.00	0.00	0.00	0.00	34	1.0142274	-75.501259	345.00	1	1.100	0.900	-2.00	0.00	0	0
50492	2	0.00	0.00	0.00	0.00	34	1.0200000	-51.908557	138.00	1	1.100	0.900	-2.00	0.00	0	0
50493	2	0.00	0.00	0.00	0.00	34	1.0144318	-72.372962	138.00	1	1.100	0.900	-2.00	0.00	0	0
50494	2	0.00	0.00	0.00	0.00	34	0.9947571	-68.841810	138.00	1	1.100	0.900	-2.00	0.00	0	0
50495	2	0.00	0.00	0.00	0.00	34	0.9996633	-75.742417	138.00	1	1.100	0.900	-2.00	0.00	0	0
50496	2	0.00	0.00	0.00	0.00	34	0.9904378	-67.579524	138.00	1	1.100	0.900	-2.00	0.00	0	0
50497	2	0.00	0.00	0.00	0.00	34	1.0037952	-73.877418	345.00	1	1.100	0.900	-2.00	0.00	0	0
50498	1	0.00	0.00	0.00	0.00	34	0.9932193	-59.207084	138.00	1	1.100	0.900	-2.00	0.00	0	0
50499	2	0.00	0.00	0.00	0.00	34	1.0198016	-66.788072	345.00	1	1.100	0.900	-2.00	0.00	0	0
50500	2	0.00	0.00	0.00	0.00	34	1.0027073	-77.105771	138.00	1	1.100	0.900	-2.00	0.00	0	0
50501	2	0.00	0.00	0.00	0.00	34	1.0195752	-65.476408	138.00	1	1.100	0.900	-2.00	0.00	0	0
50502	1	0.00	0.00	0.00	0.00	34	1.0160693	-57.019625	345.00	1	1.100	0.900	-2.00	0.00	0	0
50503	2	0.00	0.00	0.00	0.00	34	1.0200000	-70.608720	138.00	1	1.100	0.900	-2.00	0.00	0	0
50504	2	0.00	0.00	0.00	0.00	34	1.0200000	-56.596913	69.00	1	1.100	0.900	-2.00	0.00	0	0
50505	2	0.00	0.00	0.00	0.00	34	1.0200000	-54.347338	345.00	1	1.100	0.900	-2.00	0.00	0	0
50506	2	0.00	0.00	0.00	0.00	34	0.9602386	-78.694354	69.00	1	1.100	0.900	-2.00	0.00	0	0
50507	1	0.00	0.00	0.00	0.00	34	1.0009115	-57.238165	138.00	1	1.100	0.900	-2.00	0.00	0	0
50508	1	0.00	0.00	0.00	0.00	34	1.0012223	-72.870376	345.00	1	1.100	0.900	-2.00	0.00	0	0
50509	1	0.00	0.00	0.00	0.00	34	1.0043467	-56.710967	230.00	1	1.100	0.900	-2.00	0.00	0	0
...
];

%% generator data 
mpc.gen = [
50310	1354.30	32.55	655.90	-451.40	1.0200	100.00	1	1354.30	1280.00	0.00	0.00	0.00	0.00	0.00	0.00	0	0	0	0	0.0000	0	0	0	0
50310	1354.30	32.55	655.90	-451.40	1.0200	100.00	1	1354.30	1280.00	0.00	0.00	0.00	0.00	0.00	0.00	0	0	0	0	0.0000	0	0	0	0
50311	1184.10	69.33	588.50	-405.00	1.0200	100.00	1	1215.00	1112.00	0.00	0.00	0.00	0.00	0.00	0.00	0	0	0	0	0.0000	0	0	0	0
50311	1215.00	69.33	588.50	-405.00	1.0200	100.00	1	1215.00	1103.00	0.00	0.00	0.00	0.00	0.00	0.00	0	0	0	0	0.0000	0	0	0	0
50312	452.43	2.75	267.40	-267.40	1.0200	100.00	1	916.80	348.00	0.00	0.00	0.00	0.00	0.00	0.00	0	0	0	0	916.8000	0	0	0	0
50313	441.99	-2.99	324.10	-324.10	1.0200	100.00	1	893.00	400.00	0.00	0.00	0.00	0.00	0.00	0.00	0	0	0	0	893.0000	0	0	0	0
50313	472.17	-2.99	407.60	-407.60	1.0200	100.00	1	956.80	400.00	0.00	0.00	0.00	0.00	0.00	0.00	0	0	0	0	956.8000	0	0	0	0
50314	775.30	-20.13	260.70	-260.70	1.0200	100.00	1	793.20	738.00	0.00	0.00	0.00	0.00	0.00	0.00	0	0	0	0	793.2000	0	0	0	0
50314	0.00	0.00	260.70	-260.70	1.0200	100.00	0	793.20	738.00	0.00	0.00	0.00	0.00	0.00	0.00	0	0	0	0	793.2000	0	0	0	0
50314	0.00	0.00	260.70	-260.70	1.0200	100.00	0	793.20	734.00	0.00	0.00	0.00	0.00	0.00	0.00	0	0	0	0	793.2000	0	0	0	0
50315	377.52	54.59	370.50	-255.00	1.0200	100.00	1	765.00	65.00	0.00	0.00	0.00	0.00	0.00	0.00	0	0	0	0	765.0000	0	0	0	0
50315	377.52	54.59	370.50	-255.00	1.0200	100.00	1	765.00	65.00	0.00	0.00	0.00	0.00	0.00	0.00	0	0	0	0	765.0000	0	0	0	0
50316	433.90	141.82	349.20	-240.30	1.0200	100.00	1	721.00	400.00	0.00	0.00	0.00	0.00	0.00	0.00	0	0	0	0	721.0000	0	0	0	0
50317	248.85	86.00	348.70	-240.00	1.0200	100.00	1	720.00	215.00	0.00	0.00	0.00	0.00	0.00	0.00	0	0	0	0	720.0000	0	0	0	0
50318	511.10	91.74	320.40	-220.50	1.0200	100.00	1	661.50	480.00	0.00	0.00	0.00	0.00	0.00	0.00	0	0	0	0	661.5000	0	0	0	0
50319	379.26	24.05	301.40	-207.50	1.0200	100.00	1	622.40	350.00	0.00	0.00	0.00	0.00	0.00	0.00	0	0	0	0	622.4000	0	0	0	0
50320	187.67	116.40	116.40	-62.60	1.0200	100.00	1	187.80	30.00	0.00	0.00	0.00	0.00	0.00	0.00	0	0	0	0	187.8000	0	0	0	0
50320	187.67	116.40	116.40	-62.60	1.0200	100.00	1	187.80	30.00	0.00	0.00	0.00	0.00	0.00	0.00	0	0	0	0	187.8000	0	0	0	0
50320	580.37	200.98	281.10	-193.50	1.0200	100.00	1	580.50	60.00	0.00	0.00	0.00	0.00	0.00	0.00	0	0	0	0	580.5000	0	0	0	0
50320	733.97	200.98	355.50	-244.70	1.0200	100.00	1	734.10	175.00	0.00	0.00	0.00	0.00	0.00	0.00	0	0	0	0	734.1000	0	0	0	0
50320	733.97	200.98	355.50	-244.70	1.0200	100.00	1	734.10	175.00	0.00	0.00	0.00	0.00	0.00	0.00	0	0	0	0	734.1000	0	0	0	0
50320	299.07	185.40	185.40	-99.70	1.0200	100.00	1	299.20	60.00	0.00	0.00	0.00	0.00	0.00	0.00	0	0	0	0	299.2000	0	0	0	0
50320	614.47	200.98	348.30	-204.90	1.0200	100.00	1	614.60	175.00	0.00	0.00	0.00	0.00	0.00	0.00	0	0	0	0	614.6000	0	0	0	0
50320	653.87	200.98	370.60	-218.00	1.0200	100.00	1	654.00	175.00	0.00	0.00	0.00	0.00	0.00	0.00	0	0	0	0	654.0000	0	0	0	0
50321	170.38	39.59	177.95	-100.20	1.0200	100.00	1	300.55	156.25	0.00	0.00	0.00	0.00	0.00	0.00	0	0	0	0	300.5500	0	0	0	0
50321	170.38	39.59	177.95	-100.20	1.0200	100.00	1	300.55	156.25	0.00	0.00	0.00	0.00	0.00	0.00	0	0	0	0	300.5500	0	0	0	0
50322	297.90	3.36	287.40	-197.80	1.0200	100.00	1	593.40	270.00	0.00	0.00	0.00	0.00	0.00	0.00	0	0	0	0	593.4000	0	0	0	0
50322	297.90	3.36	287.40	-197.80	1.0200	100.00	1	593.40	270.00	0.00	0.00	0.00	0.00	0.00	0.00	0	0	0	0	593.4000	0	0	0	0
50323	753.29	94.20	260.70	-260.70	1.0200	100.00	1	793.20	716.00	0.00	0.00	0.00	0.00	0.00	0.00	0	0	0	0	793.2000	0	0	0	0
50323	549.90	94.20	252.80	-252.80	1.0200	100.00	1	593.40	522.00	0.00	0.00	0.00	0.00	0.00	0.00	0	0	0	0	593.4000	0	0	0	0
50323	549.90	94.20	252.80	-252.80	1.0200	100.00	1	593.40	522.00	0.00	0.00	0.00	0.00	0.00	0.00	0	0	0	0	593.4000	0	0	0	0
50324	567.77	91.74	214.40	-214.40	1.0200	100.00	1	590.60	540.00	0.00	0.00	0.00	0.00	0.00	0.00	0	0	0	0	590.6000	0	0	0	0
50325	211.70	0.19	275.00	-189.30	1.0200	100.00	1	567.90	185.00	0.00	0.00	0.00	0.00	0.00	0.00	0	0	0	0	567.9000	0	0	0	0
50325	211.70	0.19	275.00	-189.30	1.0200	100.00	1	567.90	185.00	0.00	0.00	0.00	0.00	0.00	0.00	0	0	0	0	567.9000	0	0	0	0
50326	356.69	103.65	425.20	-292.70	1.0200	100.00	1	878.00	290.00	0.00	0.00	0.00	0.00	0.00	0.00	0	0	0	0	878.0000	0	0	0	0
50326	279.31	103.65	274.10	-188.70	1.0200	100.00	1	566.00	122.00	0.00	0.00	0.00	0.00	0.00	0.00	0	0	0	0	566.0000	0	0	0	0
50327	275.37	12.50	270.30	-186.00	1.0200	100.00	1	558.00	150.00	0.00	0.00	0.00	0.00	0.00	0.00	0	0	0	0	558.0000	0	0	0	0
50327	275.37	12.50	270.30	-186.00	1.0200	100.00	1	558.00	150.00	0.00	0.00	0.00	0.00	0.00	0.00	0	0	0	0	558.0000	0	0	0	0
50327	275.37	12.50	270.30	-186.00	1.0200	100.00	1	558.00	150.00	0.00	0.00	0.00	0.00	0.00	0.00	0	0	0	0	558.0000	0	0	0	0
50328	227.00	65.16	222.80	-153.30	1.0200	100.00	1	460.00	180.00	0.00	0.00	0.00	0.00	0.00	0.00	0	0	0	0	460.0000	0	0	0	0
50328	303.50	65.16	297.90	-205.00	1.0200	100.00	1	615.00	160.00	0.00	0.00	0.00	0.00	0.00	0.00	0	0	0	0	615.0000	0	0	0	0
50328	303.50	65.16	297.90	-205.00	1.0200	100.00	1	615.00	160.00	0.00	0.00	0.00	0.00	0.00	0.00	0	0	0	0	615.0000	0	0	0	0
50329	223.80	219.60	219.60	-151.20	1.0200	100.00	1	453.50	150.00	0.00	0.00	0.00	0.00	0.00	0.00	0	0	0	0	453.5000	0	0	0	0
50330	25.61	32.20	32.20	-17.30	1.0200	100.00	1	51.90	4.00	0.00	0.00	0.00	0.00	0.00	0.00	0	0	0	0	51.9000	0	0	0	0
50330	136.05	113.40	113.40	-75.55	1.0200	100.00	1	226.60	125.40	0.00	0.00	0.00	0.00	0.00	0.00	0	0	0	0	226.6000	0	0	0	0
50330	136.05	113.40	113.40	-75.55	1.0200	100.00	1	226.60	125.40	0.00	0.00	0.00	0.00	0.00	0.00	0	0	0	0	226.6000	0	0	0	0
50330	87.07	62.50	62.50	-43.00	1.0200	100.00	1	129.00	81.00	0.00	0.00	0.00	0.00	0.00	0.00	0	0	0	0	129.0000	0	0	0	0
50330	87.07	62.50	62.50	-43.00	1.0200	100.00	1	129.00	81.00	0.00	0.00	0.00	0.00	0.00	0.00	0	0	0	0	129.0000	0	0	0	0
50330	87.07	62.50	62.50	-43.00	1.0200	100.00	1	129.00	81.00	0.00	0.00	0.00	0.00	0.00	0.00	0	0	0	0	129.0000	0	0	0	0
50331	220.10	103.65	216.00	-148.70	1.0200	100.00	1	446.00	70.00	0.00	0.00	0.00	0.00	0.00	0.00	0	0	0	0	446.0000	0	0	0	0
50331	220.10	103.65	216.00	-148.70	1.0200	100.00	1	446.00	70.00	0.00	0.00	0.00	0.00	0.00	0.00	0	0	0	0	446.0000	0	0	0	0
50332	220.10	121.27	216.00	-148.70	1.0200	100.00	1	446.00	95.00	0.00	0.00	0.00	0.00	0.00	0.00	0	0	0	0	446.0000	0	0	0	0
50333	220.10	103.65	216.00	-148.70	1.0200	100.00	1	446.00	125.00	0.00	0.00	0.00	0.00	0.00	0.00	0	0	0	0	446.0000	0	0	0	0
50333	239.84	103.65	235.40	-162.00	1.0200	100.00	1	486.00	125.00	0.00	0.00	0.00	0.00	0.00	0.00	0	0	0	0	486.0000	0	0	0	0
50334	269.28	62.27	198.60	-136.70	1.0200	100.00	1	410.00	250.00	0.00	0.00	0.00	0.00	0.00	0.00	0	0	0	0	410.0000	0	0	0	0
50335	141.39	207.30	207.30	-207.30	1.0200	100.00	1	455.00	120.00	0.00	0.00	0.00	0.00	0.00	0.00	0	0	0	0	455.0000	0	0	0	0
50335	141.39	207.30	207.30	-207.30	1.0200	100.00	1	455.00	120.00	0.00	0.00	0.00	0.00	0.00	0.00	0	0	0	0	455.0000	0	0	0	0
50335	69.03	303.60	303.60	-134.90	1.0200	100.00	1	404.80	50.00	0.00	0.00	0.00	0.00	0.00	0.00	0	0	0	0	404.8000	0	0	0	0
50336	488.97	257.20	257.20	-177.00	1.0200	100.00	1	531.00	464.00	0.00	0.00	0.00	0.00	0.00	0.00	0	0	0	0	531.0000	0	0	0	0
50336	371.64	192.00	192.00	-132.20	1.0200	100.00	1	396.50	353.00	0.00	0.00	0.00	0.00	0.00	0.00	0	0	0	0	396.5000	0	0	0	0
50337	179.93	39.20	174.40	-120.00	1.0200	100.00	1	360.00	163.00	0.00	0.00	0.00	0.00	0.00	0.00	0	0	0	0	360.0000	0	0	0	0
50337	179.93	39.20	174.40	-120.00	1.0200	100.00	1	360.00	163.00	0.00	0.00	0.00	0.00	0.00	0.00	0	0	0	0	360.0000	0	0	0	0
50337	179.93	39.20	174.40	-120.00	1.0200	100.00	1	360.00	163.00	0.00	0.00	0.00	0.00	0.00	0.00	0	0	0	0	360.0000	0	0	0	0
50338	225.11	138.00	138.00	-95.00	1.0200	100.00	1	285.00	190.00	0.00	0.00	0.00	0.00	0.00	0.00	0	0	0	0	285.0000	0	0	0	0
50338	93.37	64.40	64.40	-44.30	1.0200	100.00	1	133.00	80.00	0.00	0.00	0.00	0.00	0.00	0.00	0	0	0	0	133.0000	0	0	0	0
50339	283.20	46.67	137.20	-94.40	1.0200	100.00	1	283.20	283.20	0.00	0.00	0.00	0.00	0.00	0.00	0	0	0	0	0.0000	0	0	0	0
50340	14.10	13.46	134.60	-92.70	1.0200	100.00	1	278.00	14.10	0.00	0.00	0.00	0.00	0.00	0.00	0	0	0	0	0.0000	0	0	0	0
50341	133.93	116.98	153.80	-90.50	1.0200	100.00	1	271.40	50.00	0.00	0.00	0.00	0.00	0.00	0.00	0	0	0	0	271.4000	0	0	0	0
50341	133.93	116.98	153.80	-90.50	1.0200	100.00	1	271.40	50.00	0.00	0.00	0.00	0.00	0.00	0.00	0	0	0	0	271.4000	0	0	0	0
50342	182.55	39.36	165.50	-89.00	1.0200	100.00	1	267.00	170.00	0.00	0.00	0.00	0.00	0.00	0.00	0	0	0	0	267.0000	0	0	0	0
50342	147.55	39.36	165.50	-89.00	1.0200	100.00	1	267.00	135.00	0.00	0.00	0.00	0.00	0.00	0.00	0	0	0	0	267.0000	0	0	0	0
50342	147.55	39.36	165.50	-89.00	1.0200	100.00	1	267.00	135.00	0.00	0.00	0.00	0.00	0.00	0.00	0	0	0	0	267.0000	0	0	0	0
50343	249.00	-42.51	120.60	-83.00	1.0200	100.00	1	249.00	0.00	0.00	0.00	0.00	0.00	0.00	0.00	0	0	0	0	0.0000	0	0	0	0
50344	214.65	34.71	153.50	-82.60	1.0200	100.00	1	247.70	203.00	0.00	0.00	0.00	0.00	0.00	0.00	0	0	0	0	247.7000	0	0	0	0
50344	369.20	34.71	187.40	-129.00	1.0200	100.00	1	387.00	351.00	0.00	0.00	0.00	0.00	0.00	0.00	0	0	0	0	387.0000	0	0	0	0
50345	67.64	41.39	119.90	-82.50	1.0200	100.00	1	247.50	56.00	0.00	0.00	0.00	0.00	0.00	0.00	0	0	0	0	247.5000	0	0	0	0
50345	67.64	41.39	119.90	-82.50	1.0200	100.00	1	247.50	56.00	0.00	0.00	0.00	0.00	0.00	0.00	0	0	0	0	247.5000	0	0	0	0
50346	120.36	118.10	118.10	-81.30	1.0200	100.00	1	243.90	84.00	0.00	0.00	0.00	0.00	0.00	0.00	0	0	0	0	243.9000	0	0	0	0
50346	120.36	118.10	118.10	-81.30	1.0200	100.00	1	243.90	84.00	0.00	0.00	0.00	0.00	0.00	0.00	0	0	0	0	243.9000	0	0	0	0
50346	148.34	145.60	145.60	-100.20	1.0200	100.00	1	300.60	84.00	0.00	0.00	0.00	0.00	0.00	0.00	0	0	0	0	300.6000	0	0	0	0
50347	142.32	69.31	126.90	-87.30	1.0200	100.00	1	262.00	130.00	0.00	0.00	0.00	0.00	0.00	0.00	0	0	0	0	262.0000	0	0	0	0
50347	96.38	69.31	117.20	-80.70	1.0200	100.00	1	242.00	85.00	0.00	0.00	0.00	0.00	0.00	0.00	0	0	0	0	242.0000	0	0	0	0
50347	96.38	69.31	117.20	-80.70	1.0200	100.00	1	242.00	85.00	0.00	0.00	0.00	0.00	0.00	0.00	0	0	0	0	242.0000	0	0	0	0
50348	161.36	42.35	149.80	-80.60	1.0200	100.00	1	241.70	150.00	0.00	0.00	0.00	0.00	0.00	0.00	0	0	0	0	241.7000	0	0	0	0
50348	161.36	42.35	149.80	-80.60	1.0200	100.00	1	241.70	150.00	0.00	0.00	0.00	0.00	0.00	0.00	0	0	0	0	241.7000	0	0	0	0
50348	161.89	42.35	156.70	-84.30	1.0200	100.00	1	252.80	150.00	0.00	0.00	0.00	0.00	0.00	0.00	0	0	0	0	252.8000	0	0	0	0
50348	161.89	42.35	156.70	-84.30	1.0200	100.00	1	252.80	150.00	0.00	0.00	0.00	0.00	0.00	0.00	0	0	0	0	252.8000	0	0	0	0
50349	241.00	-48.28	116.70	-80.30	1.0200	100.00	1	241.00	0.00	0.00	0.00	0.00	0.00	0.00	0.00	0	0	0	0	0.0000	0	0	0	0
50350	118.14	60.78	148.40	-79.80	1.0200	100.00	1	239.40	50.00	0.00	0.00	0.00	0.00	0.00	0.00	0	0	0	0	239.4000	0	0	0	0
50350	118.14	60.78	148.40	-79.80	1.0200	100.00	1	239.40	50.00	0.00	0.00	0.00	0.00	0.00	0.00	0	0	0	0	239.4000	0	0	0	0
50350	291.95	60.78	335.30	-197.20	1.0200	100.00	1	591.60	185.00	0.00	0.00	0.00	0.00	0.00	0.00	0	0	0	0	591.6000	0	0	0	0
50350	233.62	60.78	268.30	-157.80	1.0200	100.00	1	473.40	55.00	0.00	0.00	0.00	0.00	0.00	0.00	0	0	0	0	473.4000	0	0	0	0
50350	250.40	60.78	287.60	-169.10	1.0200	100.00	1	507.40	55.00	0.00	0.00	0.00	0.00	0.00	0.00	0	0	0	0	507.4000	0	0	0	0
50351	214.25	148.30	148.30	-79.80	1.0200	100.00	1	239.30	203.00	0.00	0.00	0.00	0.00	0.00	0.00	0	0	0	0	239.3000	0	0	0	0
50353	140.64	176.60	176.60	-95.00	1.0200	100.00	1	285.00	80.00	0.00	0.00	0.00	0.00	0.00	0.00	0	0	0	0	285.0000	0	0	0	0
50353	130.11	104.10	104.10	-71.70	1.0200	100.00	1	215.00	120.00	0.00	0.00	0.00	0.00	0.00	0.00	0	0	0	0	215.0000	0	0	0	0
50353	130.11	104.10	104.10	-71.70	1.0200	100.00	1	215.00	120.00	0.00	0.00	0.00	0.00	0.00	0.00	0	0	0	0	215.0000	0	0	0	0
50354	213.00	-11.83	103.20	-71.00	1.0200	100.00	1	213.00	0.10	0.00	0.00	0.00	0.00	0.00	0.00	0	0	0	0	0.0000	0	0	0	0
50354	223.50	-11.83	108.20	-74.50	1.0200	100.00	1	223.50	0.10	0.00	0.00	0.00	0.00	0.00	0.00	0	0	0	0	0.0000	0	0	0	0
50354	299.00	-11.83	144.80	-99.70	1.0200	100.00	1	299.00	0.10	0.00	0.00	0.00	0.00	0.00	0.00	0	0	0	0	0.0000	0	0	0	0
50355	135.71	75.78	133.20	-91.70	1.0200	100.00	1	275.00	25.00	0.00	0.00	0.00	0.00	0.00	0.00	0	0	0	0	275.0000	0	0	0	0
50355	103.63	75.78	130.10	-70.00	1.0200	100.00	1	210.00	4.00	0.00	0.00	0.00	0.00	0.00	0.00	0	0	0	0	210.0000	0	0	0	0
50355	106.00	75.78	133.10	-71.60	1.0200	100.00	1	214.80	4.00	0.00	0.00	0.00	0.00	0.00	0.00	0	0	0	0	214.8000	0	0	0	0
50355	106.00	75.78	133.10	-71.60	1.0200	100.00	1	214.80	4.00	0.00	0.00	0.00	0.00	0.00	0.00	0	0	0	0	214.8000	0	0	0	0
50356	0.00	-7.00	101.20	-69.70	1.0200	100.00	1	209.00	0.00	0.00	0.00	0.00	0.00	0.00	0.00	0	0	0	0	0.0000	0	0	0	0
50357	8.40	2.24	6.30	-2.80	1.0200	100.00	1	8.40	4.00	0.00	0.00	0.00	0.00	0.00	0.00	0	0	0	0	8.4000	0	0	0	0
50357	8.40	2.24	6.30	-2.80	1.0200	100.00	1	8.40	4.00	0.00	0.00	0.00	0.00	0.00	0.00	0	0	0	0	8.4000	0	0	0	0
50357	8.40	2.24	6.30	-2.80	1.0200	100.00	1	8.40	4.00	0.00	0.00	0.00	0.00	0.00	0.00	0	0	0	0	8.4000	0	0	0	0
50357	8.40	2.24	6.30	-2.80	1.0200	100.00	1	8.40	4.00	0.00	0.00	0.00	0.00	0.00	0.00	0	0	0	0	8.4000	0	0	0	0
50357	8.40	2.24	6.30	-2.80	1.0200	100.00	1	8.40	4.00	0.00	0.00	0.00	0.00	0.00	0.00	0	0	0	0	8.4000	0	0	0	0
50357	8.40	2.24	6.30	-2.80	1.0200	100.00	1	8.40	4.00	0.00	0.00	0.00	0.00	0.00	0.00	0	0	0	0	8.4000	0	0	0	0
50357	8.40	2.24	6.30	-2.80	1.0200	100.00	1	8.40	4.00	0.00	0.00	0.00	0.00	0.00	0.00	0	0	0	0	8.4000	0	0	0	0
50357	8.40	2.24	6.30	-2.80	1.0200	100.00	1	8.40	4.00	0.00	0.00	0.00	0.00	0.00	0.00	0	0	0	0	8.4000	0	0	0	0
50357	8.40	2.24	6.30	-2.80	1.0200	100.00	1	8.40	4.00	0.00	0.00	0.00	0.00	0.00	0.00	0	0	0	0	8.4000	0	0	0	0
50357	4.39	2.24	6.30	-2.80	1.0200	100.00	1	8.40	4.00	0.00	0.00	0.00	0.00	0.00	0.00	0	0	0	0	8.4000	0	0	0	0
50357	4.39	2.24	6.30	-2.80	1.0200	100.00	1	8.40	4.00	0.00	0.00	0.00	0.00	0.00	0.00	0	0	0	0	8.4000	0	0	0	0
50357	4.39	2.24	6.30	-2.80	1.0200	100.00	1	8.40	4.00	0.00	0.00	0.00	0.00	0.00	0.00	0	0	0	0	8.4000	0	0	0	0
50357	4.39	2.24	6.30	-2.80	1.0200	100.00	1	8.40	4.00	0.00	0.00	0.00	0.00	0.00	0.00	0	0	0	0	8.4000	0	0	0	0
50357	4.39	2.24	6.30	-2.80	1.0200	100.00	1	8.40	4.00	0.00	0.00	0.00	0.00	0.00	0.00	0	0	0	0	8.4000	0	0	0	0
50357	4.39	2.24	6.30	-2.80	1.0200	100.00	1	8.40	4.00	0.00	0.00	0.00	0.00	0.00	0.00	0	0	0	0	8.4000	0	0	0	0
50357	4.39	2.24	6.30	-2.80	1.0200	100.00	1	8.40	4.00	0.00	0.00	0.00	0.00	0.00	0.00	0	0	0	0	8.4000	0	0	0	0
50357	4.39	2.24	6.30	-2.80	1.0200	100.00	1	8.40	4.00	0.00	0.00	0.00	0.00	0.00	0.00	0	0	0	0	8.4000	0	0	0	0
50357	4.39	2.24	6.30	-2.80	1.0200	100.00	1	8.40	4.00	0.00	0.00	0.00	0.00	0.00	0.00	0	0	0	0	8.4000	0	0	0	0
50357	4.39	2.24	6.30	-2.80	1.0200	100.00	1	8.40	4.00	0.00	0.00	0.00	0.00	0.00	0.00	0	0	0	0	8.4000	0	0	0	0
50357	4.39	2.24	6.30	-2.80	1.0200	100.00	1	8.40	4.00	0.00	0.00	0.00	0.00	0.00	0.00	0	0	0	0	8.4000	0	0	0	0
50357	4.39	2.24	6.30	-2.80	1.0200	100.00	1	8.40	4.00	0.00	0.00	0.00	0.00	0.00	0.00	0	0	0	0	8.4000	0	0	0	0
50357	4.39	2.24	6.30	-2.80	1.0200	100.00	1	8.40	4.00	0.00	0.00	0.00	0.00	0.00	0.00	0	0	0	0	8.4000	0	0	0	0
50357	4.39	2.24	6.30	-2.80	1.0200	100.00	1	8.40	4.00	0.00	0.00	0.00	0.00	0.00	0.00	0	0	0	0	8.4000	0	0	0	0
50357	8.40	2.24	6.30	-2.80	1.0200	100.00	1	8.40	4.00	0.00	0.00	0.00	0.00	0.00	0.00	0	0	0	0	8.4000	0	0	0	0
50358	201.60	-14.09	97.60	-67.20	1.0200	100.00	1	201.60	0.00	0.00	0.00	0.00	0.00	0.00	0.00	0	0	0	0	0.0000	0	0	0	0
50360	200.10	45.67	96.90	-66.70	1.0200	100.00	1	200.10	0.00	0.00	0.00	0.00	0.00	0.00	0.00	0	0	0	0	0.0000	0	0	0	0
50361	162.96	206.70	206.70	-91.90	1.0200	100.00	1	275.60	150.00	0.00	0.00	0.00	0.00	0.00	0.00	0	0	0	0	275.6000	0	0	0	0
50361	99.40	150.00	150.00	-66.70	1.0200	100.00	1	200.00	90.00	0.00	0.00	0.00	0.00	0.00	0.00	0	0	0	0	200.0000	0	0	0	0
50361	99.40	150.00	150.00	-66.70	1.0200	100.00	1	200.00	90.00	0.00	0.00	0.00	0.00	0.00	0.00	0	0	0	0	200.0000	0	0	0	0
50362	200.00	74.60	96.90	-66.70	1.0200	100.00	1	200.00	50.00	0.00	0.00	0.00	0.00	0.00	0.00	0	0	0	0	0.0000	0	0	0	0
50363	200.00	96.90	96.90	-66.70	1.0200	100.00	1	200.00	50.00	0.00	0.00	0.00	0.00	0.00	0.00	0	0	0	0	0.0000	0	0	0	0
50364	0.00	-6.25	96.60	-66.50	1.0200	100.00	1	199.50	0.00	0.00	0.00	0.00	0.00	0.00	0.00	0	0	0	0	0.0000	0	0	0	0
50365	98.15	68.38	96.30	-66.30	1.0200	100.00	1	198.90	11.00	0.00	0.00	0.00	0.00	0.00	0.00	0	0	0	0	198.9000	0	0	0	0
50365	286.47	68.38	281.10	-193.50	1.0200	100.00	1	580.50	70.00	0.00	0.00	0.00	0.00	0.00	0.00	0	0	0	0	580.5000	0	0	0	0
50365	95.43	68.38	191.80	-132.00	1.0200	100.00	1	396.00	19.00	0.00	0.00	0.00	0.00	0.00	0.00	0	0	0	0	396.0000	0	0	0	0
50366	104.35	27.28	123.30	-66.30	1.0200	100.00	1	198.90	95.00	0.00	0.00	0.00	0.00	0.00	0.00	0	0	0	0	198.9000	0	0	0	0
50366	104.35	27.28	123.30	-66.30	1.0200	100.00	1	198.90	95.00	0.00	0.00	0.00	0.00	0.00	0.00	0	0	0	0	198.9000	0	0	0	0
50366	96.48	27.28	121.20	-65.20	1.0200	100.00	1	195.50	15.00	0.00	0.00	0.00	0.00	0.00	0.00	0	0	0	0	195.5000	0	0	0	0
50367	82.50	12.96	98.80	-53.20	1.0200	100.00	1	159.50	75.00	0.00	0.00	0.00	0.00	0.00	0.00	0	0	0	0	159.5000	0	0	0	0
50367	82.50	12.96	98.80	-53.20	1.0200	100.00	1	159.50	75.00	0.00	0.00	0.00	0.00	0.00	0.00	0	0	0	0	159.5000	0	0	0	0
50367	82.50	12.96	98.80	-53.20	1.0200	100.00	1	159.50	75.00	0.00	0.00	0.00	0.00	0.00	0.00	0	0	0	0	159.5000	0	0	0	0
50367	82.50	12.96	98.80	-53.20	1.0200	100.00	1	159.50	75.00	0.00	0.00	0.00	0.00	0.00	0.00	0	0	0	0	159.5000	0	0	0	0
50367	98.15	12.96	123.30	-66.30	1.0200	100.00	1	198.90	75.00	0.00	0.00	0.00	0.00	0.00	0.00	0	0	0	0	198.9000	0	0	0	0
50367	98.15	12.96	123.30	-66.30	1.0200	100.00	1	198.90	75.00	0.00	0.00	0.00	0.00	0.00	0.00	0	0	0	0	198.9000	0	0	0	0
50367	98.15	12.96	123.30	-66.30	1.0200	100.00	1	198.90	75.00	0.00	0.00	0.00	0.00	0.00	0.00	0	0	0	0	198.9000	0	0	0	0
50367	98.15	12.96	123.30	-66.30	1.0200	100.00	1	198.90	75.00	0.00	0.00	0.00	0.00	0.00	0.00	0	0	0	0	198.9000	0	0	0	0
50368	25.37	24.90	24.90	-17.10	1.0200	100.00	1	51.40	15.00	0.00	0.00	0.00	0.00	0.00	0.00	0	0	0	0	51.4000	0	0	0	0
50368	25.37	24.90	24.90	-17.10	1.0200	100.00	1	51.40	12.00	0.00	0.00	0.00	0.00	0.00	0.00	0	0	0	0	51.4000	0	0	0	0
50368	25.37	31.90	31.90	-17.10	1.0200	100.00	1	51.40	12.00	0.00	0.00	0.00	0.00	0.00	0.00	0	0	0	0	51.4000	0	0	0	0
50368	25.37	31.90	31.90	-17.10	1.0200	100.00	1	51.40	12.00	0.00	0.00	0.00	0.00	0.00	0.00	0	0	0	0	51.4000	0	0	0	0
50368	25.37	31.90	31.90	-17.10	1.0200	100.00	1	51.40	12.00	0.00	0.00	0.00	0.00	0.00	0.00	0	0	0	0	51.4000	0	0	0	0
50368	25.37	31.90	31.90	-17.10	1.0200	100.00	1	51.40	12.00	0.00	0.00	0.00	0.00	0.00	0.00	0	0	0	0	51.4000	0	0	0	0
50368	101.31	72.04	122.70	-66.00	1.0200	100.00	1	198.00	92.00	0.00	0.00	0.00	0.00	0.00	0.00	0	0	0	0	198.0000	0	0	0	0
50368	93.76	72.04	117.80	-63.30	1.0200	100.00	1	190.00	55.00	0.00	0.00	0.00	0.00	0.00	0.00	0	0	0	0	190.0000	0	0	0	0
50369	0.00	-0.55	95.40	-65.70	1.0200	100.00	1	197.00	0.00	0.00	0.00	0.00	0.00	0.00	0.00	0	0	0	0	0.0000	0	0	0	0
50370	118.46	36.98	111.60	-60.00	1.0200	100.00	1	180.00	110.00	0.00	0.00	0.00	0.00	0.00	0.00	0	0	0	0	180.0000	0	0	0	0
50370	129.26	36.98	95.40	-65.60	1.0200	100.00	1	196.90	120.00	0.00	0.00	0.00	0.00	0.00	0.00	0	0	0	0	196.9000	0	0	0	0
50371	111.19	14.82	94.70	-65.20	1.0200	100.00	1	195.50	102.00	0.00	0.00	0.00	0.00	0.00	0.00	0	0	0	0	195.5000	0	0	0	0
50371	111.19	14.82	94.70	-65.20	1.0200	100.00	1	195.50	102.00	0.00	0.00	0.00	0.00	0.00	0.00	0	0	0	0	195.5000	0	0	0	0
50371	100.67	14.82	126.40	-68.00	1.0200	100.00	1	204.00	60.00	0.00	0.00	0.00	0.00	0.00	0.00	0	0	0	0	204.0000	0	0	0	0
50372	87.05	92.90	92.90	-50.00	1.0200	100.00	1	149.90	80.00	0.00	0.00	0.00	0.00	0.00	0.00	0	0	0	0	149.9000	0	0	0	0
50372	129.03	106.42	119.10	-64.00	1.0200	100.00	1	192.10	120.00	0.00	0.00	0.00	0.00	0.00	0.00	0	0	0	0	192.1000	0	0	0	0
50372	129.03	106.42	119.10	-64.00	1.0200	100.00	1	192.10	120.00	0.00	0.00	0.00	0.00	0.00	0.00	0	0	0	0	192.1000	0	0	0	0
50372	129.03	106.42	119.10	-64.00	1.0200	100.00	1	192.10	120.00	0.00	0.00	0.00	0.00	0.00	0.00	0	0	0	0	192.1000	0	0	0	0
50372	129.03	106.42	119.10	-64.00	1.0200	100.00	1	192.10	120.00	0.00	0.00	0.00	0.00	0.00	0.00	0	0	0	0	192.1000	0	0	0	0
50373	173.21	73.77	170.00	-117.00	1.0200	100.00	1	351.00	99.00	0.00	0.00	0.00	0.00	0.00	0.00	0	0	0	0	351.0000	0	0	0	0
50373	93.57	73.77	117.50	-63.20	1.0200	100.00	1	189.60	60.00	0.00	0.00	0.00	0.00	0.00	0.00	0	0	0	0	189.6000	0	0	0	0
50373	93.57	73.77	117.50	-63.20	1.0200	100.00	1	189.60	60.00	0.00	0.00	0.00	0.00	0.00	0.00	0	0	0	0	189.6000	0	0	0	0
50374	173.21	27.88	170.00	-117.00	1.0200	100.00	1	351.00	99.00	0.00	0.00	0.00	0.00	0.00	0.00	0	0	0	0	351.0000	0	0	0	0
50374	173.71	27.88	170.50	-117.30	1.0200	100.00	1	352.00	55.00	0.00	0.00	0.00	0.00	0.00	0.00	0	0	0	0	352.0000	0	0	0	0
50374	93.57	27.88	117.50	-63.20	1.0200	100.00	1	189.60	60.00	0.00	0.00	0.00	0.00	0.00	0.00	0	0	0	0	189.6000	0	0	0	0
50374	93.57	27.88	117.50	-63.20	1.0200	100.00	1	189.60	60.00	0.00	0.00	0.00	0.00	0.00	0.00	0	0	0	0	189.6000	0	0	0	0
50375	184.17	43.72	231.30	-124.40	1.0200	100.00	1	373.20	50.00	0.00	0.00	0.00	0.00	0.00	0.00	0	0	0	0	373.2000	0	0	0	0
50375	93.27	43.72	117.10	-63.00	1.0200	100.00	1	189.00	80.00	0.00	0.00	0.00	0.00	0.00	0.00	0	0	0	0	189.0000	0	0	0	0
50375	93.27	43.72	117.10	-63.00	1.0200	100.00	1	189.00	80.00	0.00	0.00	0.00	0.00	0.00	0.00	0	0	0	0	189.0000	0	0	0	0
50375	93.27	43.72	117.10	-63.00	1.0200	100.00	1	189.00	80.00	0.00	0.00	0.00	0.00	0.00	0.00	0	0	0	0	189.0000	0	0	0	0
50376	171.39	5.08	150.20	-80.80	1.0200	100.00	1	242.30	160.00	0.00	0.00	0.00	0.00	0.00	0.00	0	0	0	0	242.3000	0	0	0	0
50376	92.87	5.08	116.60	-62.70	1.0200	100.00	1	188.20	78.00	0.00	0.00	0.00	0.00	0.00	0.00	0	0	0	0	188.2000	0	0	0	0
50376	92.87	5.08	116.60	-62.70	1.0200	100.00	1	188.20	78.00	0.00	0.00	0.00	0.00	0.00	0.00	0	0	0	0	188.2000	0	0	0	0
50377	92.68	116.40	116.40	-62.60	1.0200	100.00	1	187.80	30.00	0.00	0.00	0.00	0.00	0.00	0.00	0	0	0	0	187.8000	0	0	0	0
50377	92.68	116.40	116.40	-62.60	1.0200	100.00	1	187.80	30.00	0.00	0.00	0.00	0.00	0.00	0.00	0	0	0	0	187.8000	0	0	0	0
50377	111.18	139.60	139.60	-75.10	1.0200	100.00	1	225.30	30.00	0.00	0.00	0.00	0.00	0.00	0.00	0	0	0	0	225.3000	0	0	0	0
50377	111.18	139.60	139.60	-75.10	1.0200	100.00	1	225.30	30.00	0.00	0.00	0.00	0.00	0.00	0.00	0	0	0	0	225.3000	0	0	0	0
50378	98.61	51.55	88.70	-61.10	1.0200	100.00	1	183.20	90.00	0.00	0.00	0.00	0.00	0.00	0.00	0	0	0	0	183.2000	0	0	0	0
50378	98.61	51.55	88.70	-61.10	1.0200	100.00	1	183.20	90.00	0.00	0.00	0.00	0.00	0.00	0.00	0	0	0	0	183.2000	0	0	0	0
50378	98.61	51.55	88.70	-61.10	1.0200	100.00	1	183.20	90.00	0.00	0.00	0.00	0.00	0.00	0.00	0	0	0	0	183.2000	0	0	0	0
50378	192.51	51.55	188.90	-130.00	1.0200	100.00	1	390.10	60.00	0.00	0.00	0.00	0.00	0.00	0.00	0	0	0	0	390.1000	0	0	0	0
50379	98.61	45.75	88.70	-61.10	1.0200	100.00	1	183.20	90.00	0.00	0.00	0.00	0.00	0.00	0.00	0	0	0	0	183.2000	0	0	0	0
50379	98.61	45.75	88.70	-61.10	1.0200	100.00	1	183.20	90.00	0.00	0.00	0.00	0.00	0.00	0.00	0	0	0	0	183.2000	0	0	0	0
50379	98.61	45.75	88.70	-61.10	1.0200	100.00	1	183.20	90.00	0.00	0.00	0.00	0.00	0.00	0.00	0	0	0	0	183.2000	0	0	0	0
50379	208.34	45.75	188.90	-130.00	1.0200	100.00	1	390.00	190.00	0.00	0.00	0.00	0.00	0.00	0.00	0	0	0	0	390.0000	0	0	0	0
50380	88.83	11.95	111.60	-60.00	1.0200	100.00	1	180.00	30.00	0.00	0.00	0.00	0.00	0.00	0.00	0	0	0	0	180.0000	0	0	0	0
50380	173.21	11.95	170.00	-117.00	1.0200	100.00	1	351.00	40.00	0.00	0.00	0.00	0.00	0.00	0.00	0	0	0	0	351.0000	0	0	0	0
50380	173.21	11.95	170.00	-117.00	1.0200	100.00	1	351.00	40.00	0.00	0.00	0.00	0.00	0.00	0.00	0	0	0	0	351.0000	0	0	0	0
50381	110.46	111.60	111.60	-60.00	1.0200	100.00	1	180.00	102.00	0.00	0.00	0.00	0.00	0.00	0.00	0	0	0	0	180.0000	0	0	0	0
...
];

%% generator cost data
mpc.gencost = [
2	0	0	4	0.0000	0.000	0.000	0.00
2	0	0	4	0.0000	0.000	0.000	0.00
2	0	0	4	0.0000	0.000	0.000	0.00
2	0	0	4	0.0000	0.000	0.000	0.00
2	0	0	4	0.0000	0.002	12.513	1494.04
2	0	0	4	0.0000	0.002	12.513	1450.00
2	0	0	4	0.0000	0.001	12.513	1553.60
2	0	0	4	0.0000	0.002	12.544	1290.37
2	0	0	4	0.0000	0.002	12.544	1290.37
2	0	0	4	0.0000	0.002	12.544	1290.37
2	0	0	4	0.0000	0.003	20.127	1932.17
2	0	0	4	0.0000	0.003	20.127	1932.17
2	0	0	4	0.0000	0.002	12.843	1132.28
2	0	0	4	0.0000	0.002	12.880	1115.18
2	0	0	4	0.0000	0.002	13.047	1042.70
2	0	0	4	0.0000	0.002	13.254	957.80
2	0	0	4	0.0000	0.011	22.242	527.76
2	0	0	4	0.0000	0.011	22.242	527.76
2	0	0	4	0.0000	0.003	21.179	1402.95
2	0	0	4	0.0000	0.002	12.795	1183.24
2	0	0	4	0.0000	0.002	12.795	1183.24
2	0	0	4	0.0000	0.007	21.390	782.46
2	0	0	4	0.0000	0.002	13.289	937.46
2	0	0	4	0.0000	0.002	13.114	1014.15
2	0	0	4	0.0000	0.009	13.659	2130.63
2	0	0	4	0.0000	0.009	13.659	2130.63
2	0	0	4	0.0000	0.002	13.341	900.88
2	0	0	4	0.0000	0.002	13.341	900.88
2	0	0	4	0.0000	0.002	12.531	1297.52
2	0	0	4	0.0000	0.002	13.341	902.00
2	0	0	4	0.0000	0.002	13.341	902.00
2	0	0	4	0.0000	0.002	13.334	893.67
2	0	0	4	0.0000	0.002	13.311	861.41
2	0	0	4	0.0000	0.002	13.311	861.41
2	0	0	4	0.0000	0.002	12.513	1425.70
2	0	0	4	0.0000	0.002	13.305	853.25
2	0	0	4	0.0000	0.002	13.304	852.34
2	0	0	4	0.0000	0.002	13.304	852.34
2	0	0	4	0.0000	0.002	13.304	852.34
2	0	0	4	0.0000	0.003	13.190	687.29
2	0	0	4	0.0000	0.002	13.288	938.49
2	0	0	4	0.0000	0.002	13.288	938.49
2	0	0	4	0.0000	0.003	13.177	681.56
2	0	0	4	0.0000	0.053	14.879	51.34
2	0	0	4	0.0000	0.009	13.659	2130.63
2	0	0	4	0.0000	0.009	13.659	2130.63
2	0	0	4	0.0000	0.009	18.772	588.04
2	0	0	4	0.0000	0.009	18.772	588.04
2	0	0	4	0.0000	0.009	18.772	588.04
2	0	0	4	0.0000	0.005	20.880	1038.56
2	0	0	4	0.0000	0.005	20.880	1038.56
2	0	0	4	0.0000	0.005	20.865	1048.59
2	0	0	4	0.0000	0.003	13.173	671.23
2	0	0	4	0.0000	0.003	13.215	728.07
2	0	0	4	0.0000	0.003	13.127	619.03
2	0	0	4	0.0000	0.004	20.990	1115.38
2	0	0	4	0.0000	0.004	20.990	1115.38
2	0	0	4	0.0000	0.005	20.929	979.98
2	0	0	4	0.0000	0.003	21.094	1277.50
2	0	0	4	0.0000	0.006	20.869	950.40
2	0	0	4	0.0000	0.004	13.263	556.82
2	0	0	4	0.0000	0.004	13.263	556.82
2	0	0	4	0.0000	0.004	13.263	556.82
2	0	0	4	0.0000	0.026	11.398	993.75
2	0	0	4	0.0000	0.009	18.772	588.04
2	0	0	4	0.0000	0.000	0.000	0.00
2	0	0	4	0.0000	0.000	0.000	0.00
2	0	0	4	0.0000	0.008	21.618	710.57
2	0	0	4	0.0000	0.008	21.618	710.57
2	0	0	4	0.0000	0.026	11.398	993.75
2	0	0	4	0.0000	0.026	11.398	993.75
2	0	0	4	0.0000	0.026	11.398	993.75
2	0	0	4	0.0000	0.000	0.000	0.00
2	0	0	4	0.0000	0.009	21.730	664.19
2	0	0	4	0.0000	0.006	20.985	917.22
2	0	0	4	0.0000	0.009	21.744	652.55
2	0	0	4	0.0000	0.009	21.744	652.55
2	0	0	4	0.0000	0.026	11.398	993.75
2	0	0	4	0.0000	0.026	11.398	993.75
2	0	0	4	0.0000	0.026	11.398	993.75
2	0	0	4	0.0000	0.026	11.398	993.75
2	0	0	4	0.0000	0.026	11.398	993.75
2	0	0	4	0.0000	0.026	11.398	993.75
2	0	0	4	0.0000	0.026	11.398	993.75
2	0	0	4	0.0000	0.026	11.398	993.75
2	0	0	4	0.0000	0.026	11.398	993.75
2	0	0	4	0.0000	0.026	11.398	993.75
2	0	0	4	0.0000	0.000	0.000	0.00
2	0	0	4	0.0000	0.009	21.779	650.05
2	0	0	4	0.0000	0.009	21.779	650.05
2	0	0	4	0.0000	0.003	21.208	1433.60
2	0	0	4	0.0000	0.004	20.991	1136.70
2	0	0	4	0.0000	0.004	21.048	1216.50
2	0	0	4	0.0000	0.009	21.853	636.23
2	0	0	4	0.0000	0.026	11.398	993.75
2	0	0	4	0.0000	0.009	18.772	588.04
2	0	0	4	0.0000	0.009	18.772	588.04
2	0	0	4	0.0000	0.000	0.000	0.00
2	0	0	4	0.0000	0.000	0.000	0.00
2	0	0	4	0.0000	0.000	0.000	0.00
2	0	0	4	0.0000	0.026	11.398	993.75
2	0	0	4	0.0000	0.009	18.772	588.04
2	0	0	4	0.0000	0.009	18.772	588.04
2	0	0	4	0.0000	0.009	18.772	588.04
2	0	0	4	0.0000	0.000	0.000	0.00
2	0	0	4	0.0000	0.070	26.977	128.60
2	0	0	4	0.0000	0.070	26.977	128.60
2	0	0	4	0.0000	0.070	26.977	128.60
2	0	0	4	0.0000	0.070	26.977	128.60
2	0	0	4	0.0000	0.070	26.977	128.60
2	0	0	4	0.0000	0.070	26.977	128.60
2	0	0	4	0.0000	0.070	26.977	128.60
2	0	0	4	0.0000	0.070	26.977	128.60
2	0	0	4	0.0000	0.070	26.977	128.60
2	0	0	4	0.0000	0.070	26.977	128.60
2	0	0	4	0.0000	0.070	26.977	128.60
2	0	0	4	0.0000	0.070	26.977	128.60
2	0	0	4	0.0000	0.070	26.977	128.60
2	0	0	4	0.0000	0.070	26.977	128.60
2	0	0	4	0.0000	0.070	26.977	128.60
2	0	0	4	0.0000	0.070	26.977	128.60
2	0	0	4	0.0000	0.070	26.977	128.60
2	0	0	4	0.0000	0.070	26.977	128.60
2	0	0	4	0.0000	0.070	26.977	128.60
2	0	0	4	0.0000	0.070	26.977	128.60
2	0	0	4	0.0000	0.070	26.977	128.60
2	0	0	4	0.0000	0.070	26.977	128.60
2	0	0	4	0.0000	0.070	26.977	128.60
2	0	0	4	0.0000	0.070	26.977	128.60
2	0	0	4	0.0000	0.000	0.000	0.00
2	0	0	4	0.0000	0.000	0.000	0.00
2	0	0	4	0.0000	0.026	11.398	993.75
2	0	0	4	0.0000	0.009	18.772	588.04
2	0	0	4	0.0000	0.009	18.772	588.04
2	0	0	4	0.0000	0.000	0.000	0.00
2	0	0	4	0.0000	0.000	0.000	0.00
2	0	0	4	0.0000	0.000	0.000	0.00
2	0	0	4	0.0000	0.011	22.191	539.38
2	0	0	4	0.0000	0.003	21.185	1403.83
2	0	0	4	0.0000	0.006	20.919	940.86
2	0	0	4	0.0000	0.009	18.772	588.04
2	0	0	4	0.0000	0.009	18.772	588.04
2	0	0	4	0.0000	0.009	18.772	588.04
2	0	0	4	0.0000	0.032	9.547	2249.86
2	0	0	4	0.0000	0.032	9.547	2249.86
2	0	0	4	0.0000	0.032	9.547	2249.86
2	0	0	4	0.0000	0.032	9.547	2249.86
2	0	0	4	0.0000	0.009	18.772	588.04
2	0	0	4	0.0000	0.009	18.772	588.04
2	0	0	4	0.0000	0.009	18.772	588.04
2	0	0	4	0.0000	0.009	18.772	588.04
2	0	0	4	0.0000	0.026	13.537	318.86
2	0	0	4	0.0000	0.026	13.537	318.86
2	0	0	4	0.0000	0.026	13.537	318.86
2	0	0	4	0.0000	0.026	13.537	318.86
2	0	0	4	0.0000	0.026	13.537	318.86
2	0	0	4	0.0000	0.026	13.537	318.86
2	0	0	4	0.0000	0.009	18.772	588.04
2	0	0	4	0.0000	0.009	18.772	588.04
2	0	0	4	0.0000	0.000	0.000	0.00
2	0	0	4	0.0000	0.032	9.547	2249.86
2	0	0	4	0.0000	0.009	18.772	588.04
2	0	0	4	0.0000	0.009	18.772	588.04
2	0	0	4	0.0000	0.009	18.772	588.04
2	0	0	4	0.0000	0.009	18.772	588.04
2	0	0	4	0.0000	0.032	9.547	2249.86
2	0	0	4	0.0000	0.009	18.772	588.04
2	0	0	4	0.0000	0.009	18.772	588.04
2	0	0	4	0.0000	0.009	18.772	588.04
2	0	0	4	0.0000	0.009	18.772	588.04
2	0	0	4	0.0000	0.026	11.398	993.75
2	0	0	4	0.0000	0.009	18.772	588.04
2	0	0	4	0.0000	0.009	18.772	588.04
2	0	0	4	0.0000	0.026	11.398	993.75
2	0	0	4	0.0000	0.006	21.046	897.55
2	0	0	4	0.0000	0.009	18.772	588.04
2	0	0	4	0.0000	0.009	18.772	588.04
2	0	0	4	0.0000	0.009	13.659	2130.63
2	0	0	4	0.0000	0.009	18.772	588.04
2	0	0	4	0.0000	0.009	18.772	588.04
2	0	0	4	0.0000	0.009	18.772	588.04
2	0	0	4	0.0000	0.026	11.398	993.75
2	0	0	4	0.0000	0.009	18.772	588.04
2	0	0	4	0.0000	0.009	18.772	588.04
2	0	0	4	0.0000	0.011	22.266	526.15
2	0	0	4	0.0000	0.011	22.266	526.15
2	0	0	4	0.0000	0.009	21.859	619.42
2	0	0	4	0.0000	0.009	21.859	619.42
2	0	0	4	0.0000	0.032	9.547	2249.86
2	0	0	4	0.0000	0.032	9.547	2249.86
2	0	0	4	0.0000	0.032	9.547	2249.86
2	0	0	4	0.0000	0.009	13.659	2130.63
2	0	0	4	0.0000	0.032	9.547	2249.86
2	0	0	4	0.0000	0.032	9.547	2249.86
2	0	0	4	0.0000	0.032	9.547	2249.86
2	0	0	4	0.0000	0.009	13.659	2130.63
2	0	0	4	0.0000	0.012	22.349	514.31
2	0	0	4	0.0000	0.006	21.086	867.61
2	0	0	4	0.0000	0.006	21.086	867.61
2	0	0	4	0.0000	0.032	9.547	2249.86
...
];

%% branch data
mpc.branch = [
50310	50361	0.002657	0.026154	0.45536	1097.00	1151.90	1206.70	0.00000	0.000	1	0.00	0.00	550.35	-38.64	-542.61	67.49	0	0	0	0
50310	50361	0.002657	0.026154	0.45536	1097.00	1151.90	1206.70	0.00000	0.000	1	0.00	0.00	550.35	-38.64	-542.61	67.49	0	0	0	0
50310	53910	0.001037	0.015778	0.28302	1419.00	1489.90	1560.90	0.00000	0.000	1	0.00	0.00	787.21	67.07	-780.96	-1.13	0	0	0	0
50310	53994	0.000876	0.013547	0.30794	1786.00	1875.30	1964.60	0.00000	0.000	1	0.00	0.00	45.71	11.66	-45.68	-43.19	0	0	0	0
50310	57029	0.000393	0.006704	0.11830	1536.00	1612.80	1689.60	0.00000	0.000	1	0.00	0.00	648.96	25.87	-647.36	-10.93	0	0	0	0
50310	92581	0.000783	0.042278	0.00000	350.00	350.00	350.00	1.00000	0.000	1	0.00	0.00	63.02	18.90	-62.99	-17.14	0	0	0	0
50310	92581	0.000783	0.042278	0.00000	350.00	350.00	350.00	1.00000	0.000	1	0.00	0.00	63.02	18.90	-62.99	-17.14	0	0	0	0
50311	50346	0.000200	0.002116	0.03164	1500.00	1570.00	1650.00	0.00000	0.000	1	0.00	0.00	933.13	5.93	-931.46	8.50	0	0	0	0
50311	50346	0.000200	0.002116	0.03164	1500.00	1570.00	1650.00	0.00000	0.000	1	0.00	0.00	933.13	5.93	-931.46	8.50	0	0	0	0
50311	56574	0.000268	0.002769	0.04351	1097.00	1151.90	1206.70	0.00000	0.000	1	0.00	0.00	537.06	-13.66	-536.32	16.82	0	0	0	0
50311	56574	0.000268	0.002769	0.04351	1097.00	1151.90	1206.70	0.00000	0.000	1	0.00	0.00	537.06	-13.66	-536.32	16.82	0	0	0	0
50311	56580	0.000311	0.003207	0.05039	1097.00	1151.90	1206.70	0.00000	0.000	1	0.00	0.00	-348.30	61.24	348.67	-62.61	0	0	0	0
50311	56580	0.000311	0.003207	0.05039	1097.00	1151.90	1206.70	0.00000	0.000	1	0.00	0.00	-348.30	61.24	348.67	-62.61	0	0	0	0
50311	92583	0.000264	0.018498	0.00000	800.00	800.00	800.00	1.00000	0.000	1	0.00	0.00	77.65	15.82	-77.64	-14.71	0	0	0	0
50311	92583	0.000264	0.018498	0.00000	800.00	800.00	800.00	1.00000	0.000	1	0.00	0.00	77.65	15.82	-77.64	-14.71	0	0	0	0
50312	50329	0.001638	0.023741	0.36546	1306.00	1371.30	1436.60	0.00000	0.000	1	0.00	0.00	158.66	-16.46	-158.26	-15.73	0	0	0	0
50312	53945	0.001730	0.022367	0.37617	1251.00	1313.50	1376.10	0.00000	0.000	1	0.00	0.00	172.83	0.24	-172.33	-32.62	0	0	0	0
50312	92584	0.000250	0.019998	0.00000	500.00	500.00	500.00	1.00000	0.000	1	0.00	0.00	60.47	9.48	-60.46	-8.76	0	0	0	0
50312	92584	0.000250	0.019998	0.00000	500.00	500.00	500.00	1.00000	0.000	1	0.00	0.00	60.47	9.48	-60.46	-8.76	0	0	0	0
50313	56743	0.005714	0.063109	0.61899	736.00	772.80	809.60	0.00000	0.000	1	0.00	0.00	119.36	-18.85	-118.56	-36.03	0	0	0	0
50313	56852	0.000944	0.016567	0.15734	998.00	1047.90	1097.80	0.00000	0.000	1	0.00	0.00	269.27	-16.22	-268.62	11.41	0	0	0	0
50313	92587	0.000148	0.011110	0.00000	900.00	900.00	900.00	1.00000	0.000	1	0.00	0.00	262.76	14.55	-262.66	-7.15	0	0	0	0
50313	92587	0.000148	0.011110	0.00000	900.00	900.00	900.00	1.00000	0.000	1	0.00	0.00	262.76	14.55	-262.66	-7.15	0	0	0	0
50314	50387	0.001650	0.016335	0.27990	1097.00	1151.90	1206.70	0.00000	0.000	1	0.00	0.00	117.51	-25.32	-117.29	-1.61	0	0	0	0
50314	50387	0.001650	0.016335	0.27990	1097.00	1151.90	1206.70	0.00000	0.000	1	0.00	0.00	117.51	-25.32	-117.29	-1.61	0	0	0	0
50314	50520	0.000543	0.005960	0.05789	736.00	772.80	809.60	0.00000	0.000	1	0.00	0.00	77.10	-9.87	-77.07	4.19	0	0	0	0
50314	55522	0.000778	0.011209	0.10286	868.00	911.40	954.80	0.00000	0.000	1	0.00	0.00	151.90	14.39	-151.73	-22.53	0	0	0	0
50314	56392	0.000757	0.008578	0.07811	736.00	772.80	809.60	0.00000	0.000	1	0.00	0.00	-44.49	0.71	44.51	-8.67	0	0	0	0
50314	57460	0.000435	0.007897	0.07895	1046.00	1098.30	1150.60	0.00000	0.000	1	0.00	0.00	248.80	-0.39	-248.54	-3.12	0	0	0	0
50314	92590	0.000359	0.026907	0.00000	550.00	550.00	550.00	1.00000	0.000	1	0.00	0.00	53.48	12.84	-53.47	-12.06	0	0	0	0
50314	92590	0.000359	0.026907	0.00000	550.00	550.00	550.00	1.00000	0.000	1	0.00	0.00	53.48	12.84	-53.47	-12.06	0	0	0	0
50315	50385	0.000009	0.000097	0.00152	1097.00	1151.90	1206.70	0.00000	0.000	1	0.00	0.00	-175.62	-96.73	175.62	96.61	0	0	0	0
50315	55762	0.000020	0.000280	0.00453	1306.00	1371.30	1436.60	0.00000	0.000	1	0.00	0.00	391.80	84.39	-391.77	-84.42	0	0	0	0
50315	55768	0.000420	0.003640	0.06814	1072.00	1072.00	1072.00	0.00000	0.000	1	0.00	0.00	145.66	26.31	-145.57	-32.62	0	0	0	0
50315	55940	0.000187	0.004320	0.08272	1921.00	2017.00	2113.10	0.00000	0.000	1	0.00	0.00	374.02	84.88	-373.75	-87.31	0	0	0	0
50315	92592	0.004748	0.170930	0.00000	100.00	100.00	100.00	1.00000	0.000	1	0.00	0.00	9.59	5.17	-9.58	-4.97	0	0	0	0
50315	92592	0.004748	0.170930	0.00000	100.00	100.00	100.00	1.00000	0.000	1	0.00	0.00	9.59	5.17	-9.58	-4.97	0	0	0	0
50316	53854	0.009086	0.103230	0.20780	512.00	537.60	563.20	0.00000	0.000	1	0.00	0.00	129.16	52.99	-127.35	-52.63	0	0	0	0
50316	92593	0.000323	0.024220	0.00000	450.00	450.00	450.00	1.00000	0.000	1	0.00	0.00	53.40	18.77	-53.39	-18.03	0	0	0	0
50316	92593	0.000323	0.024220	0.00000	450.00	450.00	450.00	1.00000	0.000	1	0.00	0.00	53.40	18.77	-53.39	-18.03	0	0	0	0
92594	50316	0.001070	0.055656	0.00000	300.00	300.00	300.00	1.00000	0.000	1	0.00	0.00	-23.42	-7.60	23.42	7.92	0	0	0	0
92594	50316	0.001070	0.055656	0.00000	300.00	300.00	300.00	1.00000	0.000	1	0.00	0.00	-23.42	-7.60	23.42	7.92	0	0	0	0
50316	94653	0.000191	0.003046	0.00625	647.00	679.30	711.70	0.00000	0.000	1	0.00	0.00	151.09	35.43	-151.04	-35.38	0	0	0	0
50317	58427	0.002064	0.031797	0.07010	647.00	679.30	711.70	0.00000	0.000	1	0.00	0.00	186.97	46.19	-186.23	-41.92	0	0	0	0
50317	92595	0.000872	0.043591	0.00000	250.00	250.00	250.00	1.00000	0.000	1	0.00	0.00	21.81	12.53	-21.81	-12.27	0	0	0	0
50317	92595	0.000872	0.043591	0.00000	250.00	250.00	250.00	1.00000	0.000	1	0.00	0.00	21.81	12.53	-21.81	-12.27	0	0	0	0
92596	50317	0.002854	0.111300	0.00000	150.00	150.00	150.00	1.00000	0.000	1	0.00	0.00	-9.12	-7.23	9.13	7.37	0	0	0	0
92596	50317	0.002854	0.111300	0.00000	150.00	150.00	150.00	1.00000	0.000	1	0.00	0.00	-9.12	-7.23	9.13	7.37	0	0	0	0
50318	50324	0.000013	0.000145	0.00141	736.00	772.80	809.60	0.00000	0.000	1	0.00	0.00	152.67	53.06	-152.66	-53.17	0	0	0	0
50318	92597	0.000296	0.022220	0.00000	450.00	450.00	450.00	1.00000	0.000	1	0.00	0.00	179.22	19.34	-179.12	-12.40	0	0	0	0
50318	92597	0.000296	0.022220	0.00000	450.00	450.00	450.00	1.00000	0.000	1	0.00	0.00	179.22	19.34	-179.12	-12.40	0	0	0	0
50319	55031	0.004438	0.030113	0.05485	366.00	384.30	402.60	0.00000	0.000	1	0.00	0.00	163.29	10.86	-162.15	-8.73	0	0	0	0
50319	92600	0.000272	0.021798	0.00000	500.00	500.00	500.00	1.00000	0.000	1	0.00	0.00	36.20	4.98	-36.20	-4.70	0	0	0	0
50319	92600	0.000272	0.021798	0.00000	500.00	500.00	500.00	1.00000	0.000	1	0.00	0.00	36.20	4.98	-36.20	-4.70	0	0	0	0
92601	50319	0.001070	0.055656	0.00000	300.00	300.00	300.00	1.00000	0.000	1	0.00	0.00	-18.23	-1.69	18.23	1.87	0	0	0	0
92601	50319	0.001070	0.055656	0.00000	300.00	300.00	300.00	1.00000	0.000	1	0.00	0.00	-18.23	-1.69	18.23	1.87	0	0	0	0
50319	92732	0.004102	0.041492	0.09423	491.00	515.50	540.10	0.00000	0.000	1	0.00	0.00	43.50	-2.90	-43.43	-6.13	0	0	0	0
50319	93932	0.004338	0.049146	0.09852	512.00	537.60	563.20	0.00000	0.000	1	0.00	0.00	63.62	2.39	-63.44	-10.64	0	0	0	0
50320	50361	0.000020	0.000342	0.00744	1877.00	1970.80	2064.70	0.00000	0.000	1	0.00	0.00	238.84	173.29	-238.82	-173.78	0	0	0	0
50320	55310	0.000232	0.005782	0.09468	1921.00	2017.00	2113.10	0.00000	0.000	1	0.00	0.00	962.73	298.15	-960.46	-251.22	0	0	0	0
50320	55355	0.000278	0.003524	0.06154	1251.00	1313.50	1376.10	0.00000	0.000	1	0.00	0.00	593.73	225.68	-592.65	-218.31	0	0	0	0
50320	55366	0.000485	0.005318	0.05166	736.00	772.80	809.60	0.00000	0.000	1	0.00	0.00	213.66	85.64	-213.41	-88.25	0	0	0	0
50320	56026	0.000695	0.007008	0.11536	1097.00	1151.90	1206.70	0.00000	0.000	1	0.00	0.00	632.64	182.72	-629.73	-165.17	0	0	0	0
50320	56026	0.000695	0.007008	0.11536	1097.00	1151.90	1206.70	0.00000	0.000	1	0.00	0.00	632.64	182.72	-629.73	-165.17	0	0	0	0
50320	92602	0.000100	0.007999	0.00000	1250.00	1250.00	1250.00	1.00000	0.000	1	0.00	0.00	358.39	137.45	-358.25	-126.12	0	0	0	0
50320	92602	0.000100	0.007999	0.00000	1250.00	1250.00	1250.00	1.00000	0.000	1	0.00	0.00	358.39	137.45	-358.25	-126.12	0	0	0	0
50321	57283	0.000036	0.000509	0.00486	868.00	911.40	954.80	0.00000	0.000	1	0.00	0.00	230.58	46.05	-230.56	-46.28	0	0	0	0
50321	92605	0.000190	0.014284	0.00000	700.00	700.00	700.00	1.00000	0.000	1	0.00	0.00	55.09	16.57	-55.08	-16.11	0	0	0	0
50321	92605	0.000190	0.014284	0.00000	700.00	700.00	700.00	1.00000	0.000	1	0.00	0.00	55.09	16.57	-55.08	-16.11	0	0	0	0
50322	50407	0.000358	0.004130	0.03621	736.00	772.80	809.60	0.00000	0.000	1	0.00	0.00	270.46	-23.84	-270.21	23.00	0	0	0	0
50322	55381	0.000243	0.002655	0.02606	736.00	772.80	809.60	0.00000	0.000	1	0.00	0.00	200.74	-9.58	-200.65	7.90	0	0	0	0
50322	56852	0.001563	0.019809	0.34648	1251.00	1313.50	1376.10	0.00000	0.000	1	0.00	0.00	-26.16	-14.63	26.17	-21.27	0	0	0	0
50322	92606	0.000190	0.014284	0.00000	700.00	700.00	700.00	1.00000	0.000	1	0.00	0.00	75.38	27.39	-75.37	-26.51	0	0	0	0
50322	92606	0.000190	0.014284	0.00000	700.00	700.00	700.00	1.00000	0.000	1	0.00	0.00	75.38	27.39	-75.37	-26.51	0	0	0	0
50323	50327	0.000239	0.005615	0.10648	1940.00	2037.00	2134.00	0.00000	0.000	1	0.00	0.00	-281.59	8.61	281.77	-15.40	0	0	0	0
50323	54088	0.000336	0.005288	0.05511	960.00	1008.00	1056.00	0.00000	0.000	1	0.00	0.00	-107.88	20.33	107.92	-25.44	0	0	0	0
50323	55378	0.000483	0.006538	0.11518	1306.00	1371.30	1436.60	0.00000	0.000	1	0.00	0.00	440.66	43.90	-439.75	-43.47	0	0	0	0
50323	56586	0.001675	0.016591	0.28429	1097.00	1151.90	1206.70	0.00000	0.000	1	0.00	0.00	531.68	37.32	-527.08	-21.00	0	0	0	0
50323	56586	0.001675	0.016591	0.28429	1097.00	1151.90	1206.70	0.00000	0.000	1	0.00	0.00	531.68	37.32	-527.08	-21.00	0	0	0	0
50323	58553	0.000442	0.008673	0.13901	1624.00	1705.20	1786.40	0.00000	0.000	1	0.00	0.00	582.94	83.56	-581.46	-68.88	0	0	0	0
50323	92609	0.000285	0.022767	0.00000	650.00	650.00	650.00	1.00000	0.000	1	0.00	0.00	77.80	25.78	-77.79	-24.31	0	0	0	0
50323	92609	0.000285	0.022767	0.00000	650.00	650.00	650.00	1.00000	0.000	1	0.00	0.00	77.80	25.78	-77.79	-24.31	0	0	0	0
50324	58446	0.001876	0.023341	0.23477	812.00	852.60	893.20	0.00000	0.000	1	0.00	0.00	341.79	84.16	-339.52	-79.68	0	0	0	0
50324	92611	0.000250	0.019998	0.00000	500.00	500.00	500.00	1.00000	0.000	1	0.00	0.00	189.32	30.37	-189.23	-23.31	0	0	0	0
50324	92611	0.000250	0.019998	0.00000	500.00	500.00	500.00	1.00000	0.000	1	0.00	0.00	189.32	30.37	-189.23	-23.31	0	0	0	0
50325	50505	0.000525	0.006098	0.05856	768.00	806.40	844.80	0.00000	0.000	1	0.00	0.00	154.58	-15.64	-154.46	10.95	0	0	0	0
50325	57337	0.002033	0.022328	0.21713	736.00	772.80	809.60	0.00000	0.000	1	0.00	0.00	74.69	6.90	-74.57	-28.10	0	0	0	0
50325	57419	0.004796	0.052871	0.51706	736.00	772.80	809.60	0.00000	0.000	1	0.00	0.00	74.51	-24.16	-74.26	-26.59	0	0	0	0
50325	92614	0.000359	0.026907	0.00000	550.00	550.00	550.00	1.00000	0.000	1	0.00	0.00	59.81	16.64	-59.80	-15.64	0	0	0	0
50325	92614	0.000359	0.026907	0.00000	550.00	550.00	550.00	1.00000	0.000	1	0.00	0.00	59.81	16.64	-59.80	-15.64	0	0	0	0
50326	50333	0.000008	0.000125	0.00122	960.00	1008.00	1056.00	0.00000	0.000	1	0.00	0.00	-277.29	-183.16	277.30	183.16	0	0	0	0
50326	53544	0.000512	0.005420	0.08106	1097.00	1151.90	1206.70	0.00000	0.000	1	0.00	0.00	359.82	150.14	-359.07	-150.51	0	0	0	0
50326	53544	0.000512	0.005420	0.08106	1097.00	1151.90	1206.70	0.00000	0.000	1	0.00	0.00	359.82	150.14	-359.07	-150.51	0	0	0	0
50326	92616	0.000285	0.022767	0.00000	650.00	650.00	650.00	1.00000	0.000	1	0.00	0.00	96.83	45.09	-96.80	-42.59	0	0	0	0
50326	92616	0.000285	0.022767	0.00000	650.00	650.00	650.00	1.00000	0.000	1	0.00	0.00	96.83	45.09	-96.80	-42.59	0	0	0	0
50327	54088	0.000337	0.004239	0.06461	1190.00	1249.50	1309.00	0.00000	0.000	1	0.00	0.00	237.29	-1.05	-237.10	-3.37	0	0	0	0
50327	57162	0.000288	0.003908	0.05954	1251.00	1313.50	1376.10	0.00000	0.000	1	0.00	0.00	155.91	3.85	-155.84	-9.13	0	0	0	0
50327	92617	0.000285	0.022767	0.00000	650.00	650.00	650.00	1.00000	0.000	1	0.00	0.00	75.57	25.04	-75.55	-23.66	0	0	0	0
...